104
cid:6, pot: -2.46611967534808
C -1.221605 -0.704271 7.720290
C -0.005743 0.015769 8.181399
C 1.220753 -0.716471 7.720290
C -0.023657 1.409662 7.720290
H -1.418815 -0.869712 6.674878
H 0.014637 0.029135 9.292141
H 1.369707 -0.854452 6.643987
H 0.761431 2.123401 7.937503
C -6.693249 -3.863325 -1.214867
C -6.654028 -3.858742 -2.700747
C -6.700293 -2.445096 -3.203293
C -5.472769 -4.580978 -3.189505
H -5.935192 -3.374078 -0.627386
H -7.553228 -4.379496 -3.093936
H -5.901158 -1.759736 -2.901100
H -5.238046 -4.705928 -4.239391
C 6.676909 -3.863325 -1.214867
C 6.653330 -3.831651 -2.700747
C 5.452208 -4.578540 -3.203293
C 6.688175 -2.447533 -3.189505
H 5.874181 -3.451452 -0.627386
H 7.553916 -4.350005 -3.093936
H 4.459102 -4.229150 -2.901100
H 6.679023 -2.181781 -4.239391
C -0.008170 7.715571 -1.214867
C -0.023811 7.679313 -2.700747
C 1.223575 7.012556 -3.203293
C -1.239915 7.017431 -3.189505
H 0.036502 6.814451 -0.627386
H -0.025196 8.718421 -3.093936
H 1.417547 5.977806 -2.901100
H -1.465486 6.876630 -4.239391
N -3.225925 -1.861465 4.447250
C -4.613222 -2.235026 4.470264
C -4.937126 -3.211624 3.343389
N -4.688929 -2.706131 2.058173
H -5.255844 -1.333723 4.393295
H -4.786568 -2.786784 5.419286
H -4.246944 -4.086837 3.516554
H -5.978397 -3.555352 3.449356
N 3.217329 -1.867565 4.447250
C 4.234280 -2.882432 4.470210
C 5.242116 -2.674707 3.343434
N 4.680334 -2.712231 2.058173
H 3.774838 -3.889505 4.393081
H 4.798747 -2.756911 5.419289
H 5.655182 -1.639492 3.516760
H 6.060270 -3.404792 3.449369
N -0.015913 3.717950 4.447250
C 0.352633 5.106584 4.470559
C -0.331141 5.874618 3.343137
N -0.015913 5.407283 2.058173
H 1.454436 5.213705 4.394472
H -0.039771 5.532142 5.419268
H -1.434146 5.713262 3.515420
H -0.109483 6.948500 3.449283
N -1.473285 -4.579759 -3.196399
C -0.690590 -5.303964 -4.159513
C 0.673372 -5.679149 -3.587367
N 1.452724 -4.579759 -3.196399
H -0.566618 -4.703615 -5.084416
H -1.219511 -6.261498 -4.355723
H 0.439544 -6.289383 -2.667978
H 1.206711 -6.317314 -4.309805
N -4.701606 1.019168 -3.196399
C -5.306716 2.272308 -3.554386
C -4.267431 3.247244 -4.100182
N -3.238601 3.553167 -3.196399
H -5.824125 2.714185 -2.677878
H -6.010168 2.067701 -4.390101
H -3.812328 2.714489 -4.984144
H -4.775871 4.156638 -4.458111
N 4.687377 1.015512 -3.196399
C 4.923209 2.055449 -4.159513
C 4.566149 3.424267 -3.587367
N 3.224373 3.549511 -3.196399
H 4.341306 1.862637 -5.084416
H 6.016919 2.076157 -4.355723
H 5.211540 3.526883 -2.667978
H 4.852146 4.205234 -4.309805
C -0.766347 -1.628392 -2.004600
N 0.102165 -0.470370 -1.958716
C 0.202005 0.427336 -2.925082
N 1.100977 1.336096 -2.509229
C 1.551442 0.993402 -1.286659
C 0.902683 -0.173862 -0.936822
C 1.204851 -0.726447 0.293359
O 0.620461 -1.789741 0.623545
N 2.093276 -0.164980 1.132119
C 2.689793 0.968432 0.734020
O 3.515548 1.505295 1.494543
N 2.441511 1.556336 -0.446898
C 3.113770 2.783437 -0.831736
C 2.380734 -0.779083 2.414791
H -0.365493 -2.443263 -2.636600
H -1.023457 -2.028153 -1.020991
H -1.744222 -1.315935 -2.475173
H -0.333180 0.440144 -3.876454
H 2.537019 3.323575 -1.618777
H 4.120276 2.620840 -1.220336
H 3.164369 3.490331 0.046811
H 2.199142 -1.871761 2.390389
H 1.782066 -0.274480 3.226984
H 3.439822 -0.591567 2.679263
