28
	Energy:      25.1995395
C         -2.24464        2.22140       -0.03815
C         -2.39537        0.83282       -0.06673
C         -1.27189       -0.00402       -0.18946
C         -0.00159        0.57490       -0.32567
C          0.15024        1.96199       -0.28738
C         -0.97406        2.79660       -0.13104
O         -0.86576        4.15024       -0.06362
H         -3.11861        2.85063        0.07362
H         -3.38860        0.41094        0.02673
C         -1.45250       -1.50583       -0.15549
H          0.87565       -0.03794       -0.45937
H          1.14550        2.37363       -0.37457
C          0.32870        4.84185       -0.03539
H         -2.54403       -1.71869       -0.15419
C         -0.90918       -2.14630        1.13935
H         -1.03228       -1.99169       -1.06256
C          0.61204       -2.28474        1.21614
H         -1.31802       -3.17656        1.20361
H         -1.28376       -1.57608        2.01887
H          0.97906       -2.89435        0.36265
H          0.88076       -2.80492        2.15917
H          1.13209       -1.31164        1.23821
C          0.05186        6.33302        0.03255
H          0.91318        4.62937       -0.95629
H          0.91739        4.54066        0.86009
H         -0.53407        6.64643       -0.85708
H          1.01325        6.88816        0.04768
H         -0.52084        6.57393        0.95320
