13
	Energy:      11.5559206
C         -2.16193        2.14358        0.00000
C         -2.30260        0.75219        0.00000
C         -1.16914       -0.06652        0.00000
C          0.10695        0.50559       -0.00000
C          0.25079        1.89743       -0.00000
C         -0.88680        2.72194       -0.00000
O         -0.76573        4.06507       -0.00000
H         -3.04273        2.77309        0.00000
H         -3.28990        0.30886        0.00000
H         -1.27990       -1.14321        0.00000
H          0.98345       -0.12970       -0.00000
H          1.24211        2.33332       -0.00000
H          0.09882        4.50009       -0.00000
